-------------------------------------------------------
          Amber 14 SANDER                              2014
          -------------------------------------------------------

  [-O]verwriting output

File Assignments:

 Here is the input file:

1 ns restrained equilibration using Langevin thermostat and GB
&cntrl
  irest     = 0,
  ntx       = 1,
  ig        = -1,
  dt        = 0.002,
  nstlim    = 10000,
  nscm      = 500,
  ntr       = 0,
  ntb       = 0,
  ntp       = 0,
  ntt       = 3,
  tempi     = 298.0,
  temp0     = 298.0,
  gamma_ln  = 80.0,
  ntf       = 2,
  ntc       = 2,
  tol       = 0.000001,
  cut       = 999.0,
  igb       = 8,
  rgbmax    = 999.0,
  saltcon   = 0
  gbsa      = 0,
  ntpr      = 500,
  ntxo      = 1,
  ntwr      = 500000,
  ioutfm    = 1,
  ntwx      = 500,
&end

--------------------------------------------------------------------------------
   1.  RESOURCE   USE:
--------------------------------------------------------------------------------

 NATOM  =     227 NTYPES =      12 NBONH =     111 MBONA  =     119
 NTHETH =     254 MTHETA =     162 NPHIH =     513 MPHIA  =     498
 NHPARM =       0 NPARM  =       0 NNB   =    1256 NRES   =      15
 NBONA  =     119 NTHETA =     162 NPHIA =     498 NUMBND =      46
 NUMANG =     105 NPTRA  =     130 NATYP =      25 NPHB   =       0
 IFBOX  =       0 NMXRS  =      24 IFCAP =       0 NEXTRA =       0
 NCOPY  =       0

 Implicit solvent radii are ArgH and AspGluO modified Bondi2 radii (mbondi3)
 Replacing prmtop screening parameters with GBn2 (igb=8) values

Note: ig = -1. Setting random seed to    88277 based on wallclock time in microseconds.

--------------------------------------------------------------------------------
   2.  CONTROL  DATA  FOR  THE  RUN
--------------------------------------------------------------------------------

default_name

General flags:
     imin    =       0, nmropt  =       0

Nature and format of input:
     ntx     =       1, irest   =       0, ntrx    =       1

Nature and format of output:
     ntxo    =       1, ntpr    =     500, ntrx    =       1, ntwr    =  500000
     iwrap   =       0, ntwx    =     500, ntwv    =       0, ntwe    =       0
     ioutfm  =       1, ntwprt  =       0, idecomp =       0, rbornstat=      0

Potential function:
     ntf     =       2, ntb     =       0, igb     =       8, nsnb    =      25
     ipol    =       0, gbsa    =       0, iesp    =       0
     dielc   =   1.00000, cut     = 999.00000, intdiel =   1.00000
     saltcon =   0.00000, offset  =   0.19514, surften =   0.00500
     rdt     =   0.00000, rgbmax  = 999.00000  extdiel =  78.50000
     alpb  =        0
     gbalphaH  =   0.78844, gbbetaH   =   0.79870,  gbgammaH  =    0.43733
     gbalphaC  =   0.73376, gbbetaC   =   0.50638,  gbgammaC  =    0.20584
     gbalphaN  =   0.50336, gbbetaN   =   0.31683,  gbgammaN  =    0.19292
     gbalphaOS =   0.86781, gbbetaOS  =   0.87664,  gbgammaOS =    0.38788
     gbalphaP  =   1.00000, gbbetaP   =   0.80000,  gbgammaP  =    4.85000
     gb_alpha_hnu  =   0.53705, gb_beta_hnu   =   0.36286,  gb_gamma_hnu  =    0.11670
     gb_alpha_cnu  =   0.33167, gb_beta_cnu   =   0.19684,  gb_gamma_cnu  =    0.09342
     gb_alpha_nnu  =   0.68631, gb_beta_nnu   =   0.46319,  gb_gamma_nnu  =    0.13872
     gb_alpha_onu  =   0.60634, gb_beta_onu   =   0.46301,  gb_gamma_onu  =    0.14226
     gb_alpha_pnu  =   0.41836, gb_beta_pnu   =   0.29005,  gb_gamma_pnu  =    0.10642

Frozen or restrained atoms:
     ibelly  =       0, ntr     =       0

Molecular dynamics:
     nstlim  =     10000, nscm    =       500, nrespa  =         1
     t       =   0.00000, dt      =   0.00200, vlimit  =  20.00000

Langevin dynamics temperature regulation:
     ig      =   88277
     temp0   = 298.00000, tempi   = 298.00000, gamma_ln=  80.00000

SHAKE:
     ntc     =       2, jfastw  =       0
     tol     =   0.00000

--------------------------------------------------------------------------------
   3.  ATOMIC COORDINATES AND VELOCITIES
--------------------------------------------------------------------------------

default_name
 begin time read from input coords =     0.000 ps

 Number of triangulated 3-point waters found:        0

--------------------------------------------------------------------------------
   4.  RESULTS
 NSTEP =        0   TIME(PS) =       0.000  TEMP(K) =   328.01  PRESS =     0.0
 Etot   =      -276.2129  EKtot   =       185.7700  EPtot      =      -461.9828
 BOND   =         6.6305  ANGLE   =        22.8121  DIHED      =       154.7777
 1-4 NB =        45.3365  1-4 EEL =       622.4966  VDWAALS    =       -75.5276
 EELEC  =      -860.4749  EGB     =      -378.0338  RESTRAINT  =         0.0000
 ------------------------------------------------------------------------------

      A V E R A G E S   O V E R   10000 S T E P S

 NSTEP =    10000   TIME(PS) =      20.000  TEMP(K) =   298.10  PRESS =     0.0
 Etot   =      -125.8080  EKtot   =       168.8303  EPtot      =      -294.6383
 BOND   =        44.4726  ANGLE   =       111.0325  DIHED      =       182.4822
 1-4 NB =        51.9684  1-4 EEL =       619.9421  VDWAALS    =       -66.1949
 EELEC  =      -864.2403  EGB     =      -374.1009  RESTRAINT  =         0.0000
 ------------------------------------------------------------------------------

      R M S  F L U C T U A T I O N S

 NSTEP =    10000   TIME(PS) =      20.000  TEMP(K) =    17.65  PRESS =     0.0
 Etot   =        14.9719  EKtot   =         9.9979  EPtot      =        10.7497
 BOND   =         5.5572  ANGLE   =         8.3125  DIHED      =         4.7164
 1-4 NB =         2.9073  1-4 EEL =         6.9950  VDWAALS    =         3.1417
 EELEC  =         9.9432  EGB     =         8.0463  RESTRAINT  =         0.0000
 ------------------------------------------------------------------------------
